/*--------------------------------*- C++ -*----------------------------------*\
| =========                 |                                                 |
| \\      /  F ield         | OpenFOAM: The Open Source CFD Toolbox           |
|  \\    /   O peration     | Version:  2.4.0                                 |
|   \\  /    A nd           | Web:      www.OpenFOAM.org                      |
|    \\/     M anipulation  |                                                 |
\*---------------------------------------------------------------------------*/
FoamFile
{
    version     2.0;
    format      ascii;
    class       dictionary;
    location    "system";
    object      fvOptions;
}
// * * * * * * * * * * * * * * * * * * * * * * * * * * * * * * * * * * * * * //

#include    "../includeSettings"

disk1
{
    type            actuationDiskRingsV21_Source;
    active          on;

    actuationDiskRingsV21_SourceCoeffs
    {
        selectionMode                 cellSet;        //cellSet // points //cellZone
        fieldNames                    (U);
        diskDir                       (1 0 0);            // orientation of the disk
        Ct                            $Ct;                // Ct
        Ct_rated                      0.764630;                // Ct
        U_rated                       11.44;
        Cp                            $Cp;                // Cp
        Uinf                          $Uinf;              // Uinf
        yaw                           $yaw;               // yaw angle (positive is against clock wise)
        pitch                         $pitch;
        omega                         $omega;
        cellSize                      $cellSize;          // fixed min cell size in disc, D=126
        diskArea                      $Area;              // disk area
        density                       1.225;              //kg/m3. 1.225 means air
        rThicknessCellsizeRatio       0.5;   //Ratio ring Thickness / cellSize
	      diskPoint         ($diskPoint_x_1 $diskPoint_y_1 $diskPoint_z_1); //disk center point
        cellSet           actuationDisk1;

        ADmodel                       0;
        nodesCellsRatio               2;
        gradInterpolation             1;
        lambda                        7;
        centerRatio                   0.3;
        rootDistance                  0.14;
        UdCellsMethod                 2;
        UdCenterToggle                0;
        UdCorrection                  0;
        rootFactor                    1;
        tipFactor                     1;
        forceDistributionMethod       1;
        averageChordLength            3.46;
        #include        "./system/listfvOptions_actuationDiskV11_Source.txt"
        #include        "./system/listfvOptions_actuationDiskRings_vanDerLaan"
        #include        "./system/Uref_Ct_Cp.txt"
    }
}

disk2
{
    type            actuationDiskRingsV21_Source;
    active          on;

    actuationDiskRingsV21_SourceCoeffs
    {
        selectionMode                 cellSet;        //cellSet // points //cellZone
        fieldNames                    (U);
        diskDir                       (1 0 0);            // orientation of the disk
        Ct                            $Ct;                // Ct
        Ct_rated                      0.764630;                // Ct
        U_rated                       11.44;
        Cp                            $Cp;                // Cp
        Uinf                          $Uinf;              // Uinf
        yaw                           $yaw;               // yaw angle (positive is against clock wise)
        pitch                         $pitch;
        omega                         $omega;
        cellSize                      $cellSize;          // fixed min cell size in disc, D=126
        diskArea                      $Area;              // disk area
        density                       1.225;              //kg/m3. 1.225 means air
        rThicknessCellsizeRatio       0.5;   //Ratio ring Thickness / cellSize
	      diskPoint         ($diskPoint_x_2 $diskPoint_y_2 $diskPoint_z_2); //disk center point
        cellSet           actuationDisk2;

        ADmodel                       4;
        nodesCellsRatio               2;
        gradInterpolation             1;
        lambda                        7;
        centerRatio                   0.3;
        rootDistance                  0.14;
        UdCellsMethod                 2;
        UdCenterToggle                0;
        UdCorrection                  0;
        rootFactor                    1;
        tipFactor                     1;
        forceDistributionMethod       1;
        averageChordLength            3.46;
        #include        "./system/listfvOptions_actuationDiskV11_Source.txt"
        #include        "./system/listfvOptions_actuationDiskRings_vanDerLaan"
        #include        "./system/Uref_Ct_Cp.txt"
    }
}
