/*--------------------------------*- C++ -*----------------------------------*\
| =========                 |                                                 |
| \\      /  F ield         | OpenFOAM: The Open Source CFD Toolbox           |
|  \\    /   O peration     | Version:  v2112                                 |
|   \\  /    A nd           | Website:  www.openfoam.com                      |
|    \\/     M anipulation  |                                                 |
\*---------------------------------------------------------------------------*/
FoamFile
{
    version     2.0;
    format      ascii;
    class       dictionary;
    object      topoSetDict;
}
// * * * * * * * * * * * * * * * * * * * * * * * * * * * * * * * * * * * * * //

#include "../includeSettings"
actions
(
    {
        name    actuationDisk1CellSet;
        type    cellSet;
        action  new;
        source  boxToCell;
        box     ($x1d_1_1 $x2d_1_1 $x3d_1_1) ($x1d_2_1 $x2d_2_1 $x3d_2_1);
   }
    {
        name    actuationDisk1;
        type    cellZoneSet;
        action  new;
        source  setToCellZone;
        set     actuationDisk1CellSet;
    }
    {
        name    actuationDisk2CellSet;
        type    cellSet;
        action  new;
        source  boxToCell;
        box     ($x1d_1_2 $x2d_1_2 $x3d_1_2) ($x1d_2_2 $x2d_2_2 $x3d_2_2);
   }
    {
        name    actuationDisk2;
        type    cellZoneSet;
        action  new;
        source  setToCellZone;
        set     actuationDisk2CellSet;
    }

);