/*--------------------------------*- C++ -*----------------------------------*\
| =========                 |                                                 |
| \\      /  F ield         | OpenFOAM: The Open Source CFD Toolbox           |
|  \\    /   O peration     | Version:  3.4.0                                 |
|   \\  /    A nd           | Web:      www.OpenFOAM.org                      |
|    \\/     M anipulation  |                                                 |
\*---------------------------------------------------------------------------*/
FoamFile
{
    version     2.0;
    format      ascii;
    class       dictionary;
    location    "system";
    object      fvOptions;
}
// * * * * * * * * * * * * * * * * * * * * * * * * * * * * * * * * * * * * * //

#include    "../includeSettings"

disk1
{
    type            actuationDiskRingsV21_Source;
    // type            actuationDiskRingsV11_Source;
    active          on;

    // actuationDiskRingsV11_SourceCoeffs
    actuationDiskRingsV21_SourceCoeffs
    {
        selectionMode   cellSet;        //cellSet // points //cellZone
        fieldNames  (U);

        diskDir     (1 0 0);            // orientation of the disk
        Cp          $Cp;                // Cp
        Ct          $Ct;                // Ct
        Uinf        $Uinf;              // Uinf
        cellSize    $cellSize;          // fixed min cell size in disc, D=126
        yaw         $yaw;               // yaw angle (positive is against clock wise)
        omega       $omega;
        pitch       $pitch;
        diskArea    $Area;              // disk area
        diskPoint   ($diskPoint_x_1 $diskPoint_y_1 $diskPoint_z_1); //disk center point
        rootFactor  1;                //1-On, 0-Off
        tipFactor   1;                //1-On, 0-Off
        nodesCellsRatio    2;           //Ratio Total amount of nodes / CellsInAD.
        rThicknessCellsizeRatio  0.5;   //Ratio ring Thickness / cellSize
        gradInterpolation  1;           //1-On, 0-Off

        rootDistance    0.1;            //root as a fraction of Diameter [D]
        lambda          7;

        centerRatio     0.3;
        UdCellsMethod   2;
        UdCenterToggle  0;
        UrefCalculationMethod  3;
        forceDistributionMethod     1;
        forceCalculationMethod     2;

        density     1.225;              //kg/m3. 1.225 means air
        cellSet         actuationDisk1;
        #include        "./system/listfvOptions_actuationDiskV11_Source.txt"
        #include        "./system/.txt"
    }
}
// ************************************************************************* //
